# generated using pymatgen
data_CaH12(ClO3)2
_symmetry_space_group_name_H-M   'P 1'
_cell_length_a   22.91528710
_cell_length_b   22.91528699
_cell_length_c   10.84553100
_cell_angle_alpha   90.00000000
_cell_angle_beta   90.00000000
_cell_angle_gamma   60.00001719
_symmetry_Int_Tables_number   1
_chemical_formula_structural   CaH12(ClO3)2
_chemical_formula_sum   'Ca27 H324 Cl54 O162'
_cell_volume   4932.10291917
_cell_formula_units_Z   27
loop_
 _symmetry_equiv_pos_site_id
 _symmetry_equiv_pos_as_xyz
  1  'x, y, z'
loop_
 _atom_site_type_symbol
 _atom_site_label
 _atom_site_symmetry_multiplicity
 _atom_site_fract_x
 _atom_site_fract_y
 _atom_site_fract_z
 _atom_site_occupancy
  Ca  Ca0  1  0.11111100  0.11111133  0.17197233  1
  Ca  Ca1  1  0.11111100  0.11111133  0.50530567  1
  Ca  Ca2  1  0.11111100  0.11111133  0.83863900  1
  Ca  Ca3  1  0.11111100  0.44444467  0.17197233  1
  Ca  Ca4  1  0.11111100  0.44444467  0.50530567  1
  Ca  Ca5  1  0.11111100  0.44444467  0.83863900  1
  Ca  Ca6  1  0.11111100  0.77777800  0.17197233  1
  Ca  Ca7  1  0.11111100  0.77777800  0.50530567  1
  Ca  Ca8  1  0.11111100  0.77777800  0.83863900  1
  Ca  Ca9  1  0.44444433  0.11111133  0.17197233  1
  Ca  Ca10  1  0.44444433  0.11111133  0.50530567  1
  Ca  Ca11  1  0.44444433  0.11111133  0.83863900  1
  Ca  Ca12  1  0.44444433  0.44444467  0.17197233  1
  Ca  Ca13  1  0.44444433  0.44444467  0.50530567  1
  Ca  Ca14  1  0.44444433  0.44444467  0.83863900  1
  Ca  Ca15  1  0.44444433  0.77777800  0.17197233  1
  Ca  Ca16  1  0.44444433  0.77777800  0.50530567  1
  Ca  Ca17  1  0.44444433  0.77777800  0.83863900  1
  Ca  Ca18  1  0.77777767  0.11111133  0.17197233  1
  Ca  Ca19  1  0.77777767  0.11111133  0.50530567  1
  Ca  Ca20  1  0.77777767  0.11111133  0.83863900  1
  Ca  Ca21  1  0.77777767  0.44444467  0.17197233  1
  Ca  Ca22  1  0.77777767  0.44444467  0.50530567  1
  Ca  Ca23  1  0.77777767  0.44444467  0.83863900  1
  Ca  Ca24  1  0.77777767  0.77777800  0.17197233  1
  Ca  Ca25  1  0.77777767  0.77777800  0.50530567  1
  Ca  Ca26  1  0.77777767  0.77777800  0.83863900  1
  Cl  Cl27  1  0.22222233  0.22222200  0.00054000  1
  Cl  Cl28  1  0.22222233  0.22222200  0.33387333  1
  Cl  Cl29  1  0.22222233  0.22222200  0.66720667  1
  Cl  Cl30  1  0.22222233  0.55555533  0.00054000  1
  Cl  Cl31  1  0.22222233  0.55555533  0.33387333  1
  Cl  Cl32  1  0.22222233  0.55555533  0.66720667  1
  Cl  Cl33  1  0.22222233  0.88888867  0.00054000  1
  Cl  Cl34  1  0.22222233  0.88888867  0.33387333  1
  Cl  Cl35  1  0.22222233  0.88888867  0.66720667  1
  Cl  Cl36  1  0.55555567  0.22222200  0.00054000  1
  Cl  Cl37  1  0.55555567  0.22222200  0.33387333  1
  Cl  Cl38  1  0.55555567  0.22222200  0.66720667  1
  Cl  Cl39  1  0.55555567  0.55555533  0.00054000  1
  Cl  Cl40  1  0.55555567  0.55555533  0.33387333  1
  Cl  Cl41  1  0.55555567  0.55555533  0.66720667  1
  Cl  Cl42  1  0.55555567  0.88888867  0.00054000  1
  Cl  Cl43  1  0.55555567  0.88888867  0.33387333  1
  Cl  Cl44  1  0.55555567  0.88888867  0.66720667  1
  Cl  Cl45  1  0.88888900  0.22222200  0.00054000  1
  Cl  Cl46  1  0.88888900  0.22222200  0.33387333  1
  Cl  Cl47  1  0.88888900  0.22222200  0.66720667  1
  Cl  Cl48  1  0.88888900  0.55555533  0.00054000  1
  Cl  Cl49  1  0.88888900  0.55555533  0.33387333  1
  Cl  Cl50  1  0.88888900  0.55555533  0.66720667  1
  Cl  Cl51  1  0.88888900  0.88888867  0.00054000  1
  Cl  Cl52  1  0.88888900  0.88888867  0.33387333  1
  Cl  Cl53  1  0.88888900  0.88888867  0.66720667  1
  Cl  Cl54  1  0.00000000  0.00000000  0.02636833  1
  Cl  Cl55  1  0.00000000  0.00000000  0.35970167  1
  Cl  Cl56  1  0.00000000  0.00000000  0.69303500  1
  Cl  Cl57  1  0.00000000  0.33333333  0.02636833  1
  Cl  Cl58  1  0.00000000  0.33333333  0.35970167  1
  Cl  Cl59  1  0.00000000  0.33333333  0.69303500  1
  Cl  Cl60  1  0.00000000  0.66666667  0.02636833  1
  Cl  Cl61  1  0.00000000  0.66666667  0.35970167  1
  Cl  Cl62  1  0.00000000  0.66666667  0.69303500  1
  Cl  Cl63  1  0.33333333  0.00000000  0.02636833  1
  Cl  Cl64  1  0.33333333  0.00000000  0.35970167  1
  Cl  Cl65  1  0.33333333  0.00000000  0.69303500  1
  Cl  Cl66  1  0.33333333  0.33333333  0.02636833  1
  Cl  Cl67  1  0.33333333  0.33333333  0.35970167  1
  Cl  Cl68  1  0.33333333  0.33333333  0.69303500  1
  Cl  Cl69  1  0.33333333  0.66666667  0.02636833  1
  Cl  Cl70  1  0.33333333  0.66666667  0.35970167  1
  Cl  Cl71  1  0.33333333  0.66666667  0.69303500  1
  Cl  Cl72  1  0.66666667  0.00000000  0.02636833  1
  Cl  Cl73  1  0.66666667  0.00000000  0.35970167  1
  Cl  Cl74  1  0.66666667  0.00000000  0.69303500  1
  Cl  Cl75  1  0.66666667  0.33333333  0.02636833  1
  Cl  Cl76  1  0.66666667  0.33333333  0.35970167  1
  Cl  Cl77  1  0.66666667  0.33333333  0.69303500  1
  Cl  Cl78  1  0.66666667  0.66666667  0.02636833  1
  Cl  Cl79  1  0.66666667  0.66666667  0.35970167  1
  Cl  Cl80  1  0.66666667  0.66666667  0.69303500  1
  H  H81  1  0.15015300  0.32434500  0.01597700  1
  H  H82  1  0.15015300  0.32434500  0.34931033  1
  H  H83  1  0.15015300  0.32434500  0.68264367  1
  H  H84  1  0.15015300  0.65767833  0.01597700  1
  H  H85  1  0.15015300  0.65767833  0.34931033  1
  H  H86  1  0.15015300  0.65767833  0.68264367  1
  H  H87  1  0.15015300  0.99101167  0.01597700  1
  H  H88  1  0.15015300  0.99101167  0.34931033  1
  H  H89  1  0.15015300  0.99101167  0.68264367  1
  H  H90  1  0.48348633  0.32434500  0.01597700  1
  H  H91  1  0.48348633  0.32434500  0.34931033  1
  H  H92  1  0.48348633  0.32434500  0.68264367  1
  H  H93  1  0.48348633  0.65767833  0.01597700  1
  H  H94  1  0.48348633  0.65767833  0.34931033  1
  H  H95  1  0.48348633  0.65767833  0.68264367  1
  H  H96  1  0.48348633  0.99101167  0.01597700  1
  H  H97  1  0.48348633  0.99101167  0.34931033  1
  H  H98  1  0.48348633  0.99101167  0.68264367  1
  H  H99  1  0.81681967  0.32434500  0.01597700  1
  H  H100  1  0.81681967  0.32434500  0.34931033  1
  H  H101  1  0.81681967  0.32434500  0.68264367  1
  H  H102  1  0.81681967  0.65767833  0.01597700  1
  H  H103  1  0.81681967  0.65767833  0.34931033  1
  H  H104  1  0.81681967  0.65767833  0.68264367  1
  H  H105  1  0.81681967  0.99101167  0.01597700  1
  H  H106  1  0.81681967  0.99101167  0.34931033  1
  H  H107  1  0.81681967  0.99101167  0.68264367  1
  H  H108  1  0.07064667  0.03506267  0.32600500  1
  H  H109  1  0.07064667  0.03506267  0.65933833  1
  H  H110  1  0.07064667  0.03506267  0.99267167  1
  H  H111  1  0.07064667  0.36839600  0.32600500  1
  H  H112  1  0.07064667  0.36839600  0.65933833  1
  H  H113  1  0.07064667  0.36839600  0.99267167  1
  H  H114  1  0.07064667  0.70172933  0.32600500  1
  H  H115  1  0.07064667  0.70172933  0.65933833  1
  H  H116  1  0.07064667  0.70172933  0.99267167  1
  H  H117  1  0.40398000  0.03506267  0.32600500  1
  H  H118  1  0.40398000  0.03506267  0.65933833  1
  H  H119  1  0.40398000  0.03506267  0.99267167  1
  H  H120  1  0.40398000  0.36839600  0.32600500  1
  H  H121  1  0.40398000  0.36839600  0.65933833  1
  H  H122  1  0.40398000  0.36839600  0.99267167  1
  H  H123  1  0.40398000  0.70172933  0.32600500  1
  H  H124  1  0.40398000  0.70172933  0.65933833  1
  H  H125  1  0.40398000  0.70172933  0.99267167  1
  H  H126  1  0.73731333  0.03506267  0.32600500  1
  H  H127  1  0.73731333  0.03506267  0.65933833  1
  H  H128  1  0.73731333  0.03506267  0.99267167  1
  H  H129  1  0.73731333  0.36839600  0.32600500  1
  H  H130  1  0.73731333  0.36839600  0.65933833  1
  H  H131  1  0.73731333  0.36839600  0.99267167  1
  H  H132  1  0.73731333  0.70172933  0.32600500  1
  H  H133  1  0.73731333  0.70172933  0.65933833  1
  H  H134  1  0.73731333  0.70172933  0.99267167  1
  H  H135  1  0.19216800  0.15015300  0.01597700  1
  H  H136  1  0.19216800  0.15015300  0.34931033  1
  H  H137  1  0.19216800  0.15015300  0.68264367  1
  H  H138  1  0.19216800  0.48348633  0.01597700  1
  H  H139  1  0.19216800  0.48348633  0.34931033  1
  H  H140  1  0.19216800  0.48348633  0.68264367  1
  H  H141  1  0.19216800  0.81681967  0.01597700  1
  H  H142  1  0.19216800  0.81681967  0.34931033  1
  H  H143  1  0.19216800  0.81681967  0.68264367  1
  H  H144  1  0.52550133  0.15015300  0.01597700  1
  H  H145  1  0.52550133  0.15015300  0.34931033  1
  H  H146  1  0.52550133  0.15015300  0.68264367  1
  H  H147  1  0.52550133  0.48348633  0.01597700  1
  H  H148  1  0.52550133  0.48348633  0.34931033  1
  H  H149  1  0.52550133  0.48348633  0.68264367  1
  H  H150  1  0.52550133  0.81681967  0.01597700  1
  H  H151  1  0.52550133  0.81681967  0.34931033  1
  H  H152  1  0.52550133  0.81681967  0.68264367  1
  H  H153  1  0.85883467  0.15015300  0.01597700  1
  H  H154  1  0.85883467  0.15015300  0.34931033  1
  H  H155  1  0.85883467  0.15015300  0.68264367  1
  H  H156  1  0.85883467  0.48348633  0.01597700  1
  H  H157  1  0.85883467  0.48348633  0.34931033  1
  H  H158  1  0.85883467  0.48348633  0.68264367  1
  H  H159  1  0.85883467  0.81681967  0.01597700  1
  H  H160  1  0.85883467  0.81681967  0.34931033  1
  H  H161  1  0.85883467  0.81681967  0.68264367  1
  H  H162  1  0.22762433  0.07064633  0.32600500  1
  H  H163  1  0.22762433  0.07064633  0.65933833  1
  H  H164  1  0.22762433  0.07064633  0.99267167  1
  H  H165  1  0.22762433  0.40397967  0.32600500  1
  H  H166  1  0.22762433  0.40397967  0.65933833  1
  H  H167  1  0.22762433  0.40397967  0.99267167  1
  H  H168  1  0.22762433  0.73731300  0.32600500  1
  H  H169  1  0.22762433  0.73731300  0.65933833  1
  H  H170  1  0.22762433  0.73731300  0.99267167  1
  H  H171  1  0.56095767  0.07064633  0.32600500  1
  H  H172  1  0.56095767  0.07064633  0.65933833  1
  H  H173  1  0.56095767  0.07064633  0.99267167  1
  H  H174  1  0.56095767  0.40397967  0.32600500  1
  H  H175  1  0.56095767  0.40397967  0.65933833  1
  H  H176  1  0.56095767  0.40397967  0.99267167  1
  H  H177  1  0.56095767  0.73731300  0.32600500  1
  H  H178  1  0.56095767  0.73731300  0.65933833  1
  H  H179  1  0.56095767  0.73731300  0.99267167  1
  H  H180  1  0.89429100  0.07064633  0.32600500  1
  H  H181  1  0.89429100  0.07064633  0.65933833  1
  H  H182  1  0.89429100  0.07064633  0.99267167  1
  H  H183  1  0.89429100  0.40397967  0.32600500  1
  H  H184  1  0.89429100  0.40397967  0.65933833  1
  H  H185  1  0.89429100  0.40397967  0.99267167  1
  H  H186  1  0.89429100  0.73731300  0.32600500  1
  H  H187  1  0.89429100  0.73731300  0.65933833  1
  H  H188  1  0.89429100  0.73731300  0.99267167  1
  H  H189  1  0.32434500  0.19216800  0.01597700  1
  H  H190  1  0.32434500  0.19216800  0.34931033  1
  H  H191  1  0.32434500  0.19216800  0.68264367  1
  H  H192  1  0.32434500  0.52550133  0.01597700  1
  H  H193  1  0.32434500  0.52550133  0.34931033  1
  H  H194  1  0.32434500  0.52550133  0.68264367  1
  H  H195  1  0.32434500  0.85883467  0.01597700  1
  H  H196  1  0.32434500  0.85883467  0.34931033  1
  H  H197  1  0.32434500  0.85883467  0.68264367  1
  H  H198  1  0.65767833  0.19216800  0.01597700  1
  H  H199  1  0.65767833  0.19216800  0.34931033  1
  H  H200  1  0.65767833  0.19216800  0.68264367  1
  H  H201  1  0.65767833  0.52550133  0.01597700  1
  H  H202  1  0.65767833  0.52550133  0.34931033  1
  H  H203  1  0.65767833  0.52550133  0.68264367  1
  H  H204  1  0.65767833  0.85883467  0.01597700  1
  H  H205  1  0.65767833  0.85883467  0.34931033  1
  H  H206  1  0.65767833  0.85883467  0.68264367  1
  H  H207  1  0.99101167  0.19216800  0.01597700  1
  H  H208  1  0.99101167  0.19216800  0.34931033  1
  H  H209  1  0.99101167  0.19216800  0.68264367  1
  H  H210  1  0.99101167  0.52550133  0.01597700  1
  H  H211  1  0.99101167  0.52550133  0.34931033  1
  H  H212  1  0.99101167  0.52550133  0.68264367  1
  H  H213  1  0.99101167  0.85883467  0.01597700  1
  H  H214  1  0.99101167  0.85883467  0.34931033  1
  H  H215  1  0.99101167  0.85883467  0.68264367  1
  H  H216  1  0.03506300  0.22762400  0.32600500  1
  H  H217  1  0.03506300  0.22762400  0.65933833  1
  H  H218  1  0.03506300  0.22762400  0.99267167  1
  H  H219  1  0.03506300  0.56095733  0.32600500  1
  H  H220  1  0.03506300  0.56095733  0.65933833  1
  H  H221  1  0.03506300  0.56095733  0.99267167  1
  H  H222  1  0.03506300  0.89429067  0.32600500  1
  H  H223  1  0.03506300  0.89429067  0.65933833  1
  H  H224  1  0.03506300  0.89429067  0.99267167  1
  H  H225  1  0.36839633  0.22762400  0.32600500  1
  H  H226  1  0.36839633  0.22762400  0.65933833  1
  H  H227  1  0.36839633  0.22762400  0.99267167  1
  H  H228  1  0.36839633  0.56095733  0.32600500  1
  H  H229  1  0.36839633  0.56095733  0.65933833  1
  H  H230  1  0.36839633  0.56095733  0.99267167  1
  H  H231  1  0.36839633  0.89429067  0.32600500  1
  H  H232  1  0.36839633  0.89429067  0.65933833  1
  H  H233  1  0.36839633  0.89429067  0.99267167  1
  H  H234  1  0.70172967  0.22762400  0.32600500  1
  H  H235  1  0.70172967  0.22762400  0.65933833  1
  H  H236  1  0.70172967  0.22762400  0.99267167  1
  H  H237  1  0.70172967  0.56095733  0.32600500  1
  H  H238  1  0.70172967  0.56095733  0.65933833  1
  H  H239  1  0.70172967  0.56095733  0.99267167  1
  H  H240  1  0.70172967  0.89429067  0.32600500  1
  H  H241  1  0.70172967  0.89429067  0.65933833  1
  H  H242  1  0.70172967  0.89429067  0.99267167  1
  H  H243  1  0.22821533  0.29507500  0.21370000  1
  H  H244  1  0.22821533  0.29507500  0.54703333  1
  H  H245  1  0.22821533  0.29507500  0.88036667  1
  H  H246  1  0.22821533  0.62840833  0.21370000  1
  H  H247  1  0.22821533  0.62840833  0.54703333  1
  H  H248  1  0.22821533  0.62840833  0.88036667  1
  H  H249  1  0.22821533  0.96174167  0.21370000  1
  H  H250  1  0.22821533  0.96174167  0.54703333  1
  H  H251  1  0.22821533  0.96174167  0.88036667  1
  H  H252  1  0.56154867  0.29507500  0.21370000  1
  H  H253  1  0.56154867  0.29507500  0.54703333  1
  H  H254  1  0.56154867  0.29507500  0.88036667  1
  H  H255  1  0.56154867  0.62840833  0.21370000  1
  H  H256  1  0.56154867  0.62840833  0.54703333  1
  H  H257  1  0.56154867  0.62840833  0.88036667  1
  H  H258  1  0.56154867  0.96174167  0.21370000  1
  H  H259  1  0.56154867  0.96174167  0.54703333  1
  H  H260  1  0.56154867  0.96174167  0.88036667  1
  H  H261  1  0.89488200  0.29507500  0.21370000  1
  H  H262  1  0.89488200  0.29507500  0.54703333  1
  H  H263  1  0.89488200  0.29507500  0.88036667  1
  H  H264  1  0.89488200  0.62840833  0.21370000  1
  H  H265  1  0.89488200  0.62840833  0.54703333  1
  H  H266  1  0.89488200  0.62840833  0.88036667  1
  H  H267  1  0.89488200  0.96174167  0.21370000  1
  H  H268  1  0.89488200  0.96174167  0.54703333  1
  H  H269  1  0.89488200  0.96174167  0.88036667  1
  H  H270  1  0.26346767  0.32866967  0.13942867  1
  H  H271  1  0.26346767  0.32866967  0.47276200  1
  H  H272  1  0.26346767  0.32866967  0.80609533  1
  H  H273  1  0.26346767  0.66200300  0.13942867  1
  H  H274  1  0.26346767  0.66200300  0.47276200  1
  H  H275  1  0.26346767  0.66200300  0.80609533  1
  H  H276  1  0.26346767  0.99533633  0.13942867  1
  H  H277  1  0.26346767  0.99533633  0.47276200  1
  H  H278  1  0.26346767  0.99533633  0.80609533  1
  H  H279  1  0.59680100  0.32866967  0.13942867  1
  H  H280  1  0.59680100  0.32866967  0.47276200  1
  H  H281  1  0.59680100  0.32866967  0.80609533  1
  H  H282  1  0.59680100  0.66200300  0.13942867  1
  H  H283  1  0.59680100  0.66200300  0.47276200  1
  H  H284  1  0.59680100  0.66200300  0.80609533  1
  H  H285  1  0.59680100  0.99533633  0.13942867  1
  H  H286  1  0.59680100  0.99533633  0.47276200  1
  H  H287  1  0.59680100  0.99533633  0.80609533  1
  H  H288  1  0.93013433  0.32866967  0.13942867  1
  H  H289  1  0.93013433  0.32866967  0.47276200  1
  H  H290  1  0.93013433  0.32866967  0.80609533  1
  H  H291  1  0.93013433  0.66200300  0.13942867  1
  H  H292  1  0.93013433  0.66200300  0.47276200  1
  H  H293  1  0.93013433  0.66200300  0.80609533  1
  H  H294  1  0.93013433  0.99533633  0.13942867  1
  H  H295  1  0.93013433  0.99533633  0.47276200  1
  H  H296  1  0.93013433  0.99533633  0.80609533  1
  H  H297  1  0.14337633  0.22821533  0.21370000  1
  H  H298  1  0.14337633  0.22821533  0.54703333  1
  H  H299  1  0.14337633  0.22821533  0.88036667  1
  H  H300  1  0.14337633  0.56154867  0.21370000  1
  H  H301  1  0.14337633  0.56154867  0.54703333  1
  H  H302  1  0.14337633  0.56154867  0.88036667  1
  H  H303  1  0.14337633  0.89488200  0.21370000  1
  H  H304  1  0.14337633  0.89488200  0.54703333  1
  H  H305  1  0.14337633  0.89488200  0.88036667  1
  H  H306  1  0.47670967  0.22821533  0.21370000  1
  H  H307  1  0.47670967  0.22821533  0.54703333  1
  H  H308  1  0.47670967  0.22821533  0.88036667  1
  H  H309  1  0.47670967  0.56154867  0.21370000  1
  H  H310  1  0.47670967  0.56154867  0.54703333  1
  H  H311  1  0.47670967  0.56154867  0.88036667  1
  H  H312  1  0.47670967  0.89488200  0.21370000  1
  H  H313  1  0.47670967  0.89488200  0.54703333  1
  H  H314  1  0.47670967  0.89488200  0.88036667  1
  H  H315  1  0.81004300  0.22821533  0.21370000  1
  H  H316  1  0.81004300  0.22821533  0.54703333  1
  H  H317  1  0.81004300  0.22821533  0.88036667  1
  H  H318  1  0.81004300  0.56154867  0.21370000  1
  H  H319  1  0.81004300  0.56154867  0.54703333  1
  H  H320  1  0.81004300  0.56154867  0.88036667  1
  H  H321  1  0.81004300  0.89488200  0.21370000  1
  H  H322  1  0.81004300  0.89488200  0.54703333  1
  H  H323  1  0.81004300  0.89488200  0.88036667  1
  H  H324  1  0.07452900  0.26346767  0.13942867  1
  H  H325  1  0.07452900  0.26346767  0.47276200  1
  H  H326  1  0.07452900  0.26346767  0.80609533  1
  H  H327  1  0.07452900  0.59680100  0.13942867  1
  H  H328  1  0.07452900  0.59680100  0.47276200  1
  H  H329  1  0.07452900  0.59680100  0.80609533  1
  H  H330  1  0.07452900  0.93013433  0.13942867  1
  H  H331  1  0.07452900  0.93013433  0.47276200  1
  H  H332  1  0.07452900  0.93013433  0.80609533  1
  H  H333  1  0.40786233  0.26346767  0.13942867  1
  H  H334  1  0.40786233  0.26346767  0.47276200  1
  H  H335  1  0.40786233  0.26346767  0.80609533  1
  H  H336  1  0.40786233  0.59680100  0.13942867  1
  H  H337  1  0.40786233  0.59680100  0.47276200  1
  H  H338  1  0.40786233  0.59680100  0.80609533  1
  H  H339  1  0.40786233  0.93013433  0.13942867  1
  H  H340  1  0.40786233  0.93013433  0.47276200  1
  H  H341  1  0.40786233  0.93013433  0.80609533  1
  H  H342  1  0.74119567  0.26346767  0.13942867  1
  H  H343  1  0.74119567  0.26346767  0.47276200  1
  H  H344  1  0.74119567  0.26346767  0.80609533  1
  H  H345  1  0.74119567  0.59680100  0.13942867  1
  H  H346  1  0.74119567  0.59680100  0.47276200  1
  H  H347  1  0.74119567  0.59680100  0.80609533  1
  H  H348  1  0.74119567  0.93013433  0.13942867  1
  H  H349  1  0.74119567  0.93013433  0.47276200  1
  H  H350  1  0.74119567  0.93013433  0.80609533  1
  H  H351  1  0.29507500  0.14337633  0.21370000  1
  H  H352  1  0.29507500  0.14337633  0.54703333  1
  H  H353  1  0.29507500  0.14337633  0.88036667  1
  H  H354  1  0.29507500  0.47670967  0.21370000  1
  H  H355  1  0.29507500  0.47670967  0.54703333  1
  H  H356  1  0.29507500  0.47670967  0.88036667  1
  H  H357  1  0.29507500  0.81004300  0.21370000  1
  H  H358  1  0.29507500  0.81004300  0.54703333  1
  H  H359  1  0.29507500  0.81004300  0.88036667  1
  H  H360  1  0.62840833  0.14337633  0.21370000  1
  H  H361  1  0.62840833  0.14337633  0.54703333  1
  H  H362  1  0.62840833  0.14337633  0.88036667  1
  H  H363  1  0.62840833  0.47670967  0.21370000  1
  H  H364  1  0.62840833  0.47670967  0.54703333  1
  H  H365  1  0.62840833  0.47670967  0.88036667  1
  H  H366  1  0.62840833  0.81004300  0.21370000  1
  H  H367  1  0.62840833  0.81004300  0.54703333  1
  H  H368  1  0.62840833  0.81004300  0.88036667  1
  H  H369  1  0.96174167  0.14337633  0.21370000  1
  H  H370  1  0.96174167  0.14337633  0.54703333  1
  H  H371  1  0.96174167  0.14337633  0.88036667  1
  H  H372  1  0.96174167  0.47670967  0.21370000  1
  H  H373  1  0.96174167  0.47670967  0.54703333  1
  H  H374  1  0.96174167  0.47670967  0.88036667  1
  H  H375  1  0.96174167  0.81004300  0.21370000  1
  H  H376  1  0.96174167  0.81004300  0.54703333  1
  H  H377  1  0.96174167  0.81004300  0.88036667  1
  H  H378  1  0.32866967  0.07452900  0.13942867  1
  H  H379  1  0.32866967  0.07452900  0.47276200  1
  H  H380  1  0.32866967  0.07452900  0.80609533  1
  H  H381  1  0.32866967  0.40786233  0.13942867  1
  H  H382  1  0.32866967  0.40786233  0.47276200  1
  H  H383  1  0.32866967  0.40786233  0.80609533  1
  H  H384  1  0.32866967  0.74119567  0.13942867  1
  H  H385  1  0.32866967  0.74119567  0.47276200  1
  H  H386  1  0.32866967  0.74119567  0.80609533  1
  H  H387  1  0.66200300  0.07452900  0.13942867  1
  H  H388  1  0.66200300  0.07452900  0.47276200  1
  H  H389  1  0.66200300  0.07452900  0.80609533  1
  H  H390  1  0.66200300  0.40786233  0.13942867  1
  H  H391  1  0.66200300  0.40786233  0.47276200  1
  H  H392  1  0.66200300  0.40786233  0.80609533  1
  H  H393  1  0.66200300  0.74119567  0.13942867  1
  H  H394  1  0.66200300  0.74119567  0.47276200  1
  H  H395  1  0.66200300  0.74119567  0.80609533  1
  H  H396  1  0.99533633  0.07452900  0.13942867  1
  H  H397  1  0.99533633  0.07452900  0.47276200  1
  H  H398  1  0.99533633  0.07452900  0.80609533  1
  H  H399  1  0.99533633  0.40786233  0.13942867  1
  H  H400  1  0.99533633  0.40786233  0.47276200  1
  H  H401  1  0.99533633  0.40786233  0.80609533  1
  H  H402  1  0.99533633  0.74119567  0.13942867  1
  H  H403  1  0.99533633  0.74119567  0.47276200  1
  H  H404  1  0.99533633  0.74119567  0.80609533  1
  O  O405  1  0.11195733  0.03769467  0.00642800  1
  O  O406  1  0.11195733  0.03769467  0.33976133  1
  O  O407  1  0.11195733  0.03769467  0.67309467  1
  O  O408  1  0.11195733  0.37102800  0.00642800  1
  O  O409  1  0.11195733  0.37102800  0.33976133  1
  O  O410  1  0.11195733  0.37102800  0.67309467  1
  O  O411  1  0.11195733  0.70436133  0.00642800  1
  O  O412  1  0.11195733  0.70436133  0.33976133  1
  O  O413  1  0.11195733  0.70436133  0.67309467  1
  O  O414  1  0.44529067  0.03769467  0.00642800  1
  O  O415  1  0.44529067  0.03769467  0.33976133  1
  O  O416  1  0.44529067  0.03769467  0.67309467  1
  O  O417  1  0.44529067  0.37102800  0.00642800  1
  O  O418  1  0.44529067  0.37102800  0.33976133  1
  O  O419  1  0.44529067  0.37102800  0.67309467  1
  O  O420  1  0.44529067  0.70436133  0.00642800  1
  O  O421  1  0.44529067  0.70436133  0.33976133  1
  O  O422  1  0.44529067  0.70436133  0.67309467  1
  O  O423  1  0.77862400  0.03769467  0.00642800  1
  O  O424  1  0.77862400  0.03769467  0.33976133  1
  O  O425  1  0.77862400  0.03769467  0.67309467  1
  O  O426  1  0.77862400  0.37102800  0.00642800  1
  O  O427  1  0.77862400  0.37102800  0.33976133  1
  O  O428  1  0.77862400  0.37102800  0.67309467  1
  O  O429  1  0.77862400  0.70436133  0.00642800  1
  O  O430  1  0.77862400  0.70436133  0.33976133  1
  O  O431  1  0.77862400  0.70436133  0.67309467  1
  O  O432  1  0.18368133  0.11195733  0.00642800  1
  O  O433  1  0.18368133  0.11195733  0.33976133  1
  O  O434  1  0.18368133  0.11195733  0.67309467  1
  O  O435  1  0.18368133  0.44529067  0.00642800  1
  O  O436  1  0.18368133  0.44529067  0.33976133  1
  O  O437  1  0.18368133  0.44529067  0.67309467  1
  O  O438  1  0.18368133  0.77862400  0.00642800  1
  O  O439  1  0.18368133  0.77862400  0.33976133  1
  O  O440  1  0.18368133  0.77862400  0.67309467  1
  O  O441  1  0.51701467  0.11195733  0.00642800  1
  O  O442  1  0.51701467  0.11195733  0.33976133  1
  O  O443  1  0.51701467  0.11195733  0.67309467  1
  O  O444  1  0.51701467  0.44529067  0.00642800  1
  O  O445  1  0.51701467  0.44529067  0.33976133  1
  O  O446  1  0.51701467  0.44529067  0.67309467  1
  O  O447  1  0.51701467  0.77862400  0.00642800  1
  O  O448  1  0.51701467  0.77862400  0.33976133  1
  O  O449  1  0.51701467  0.77862400  0.67309467  1
  O  O450  1  0.85034800  0.11195733  0.00642800  1
  O  O451  1  0.85034800  0.11195733  0.33976133  1
  O  O452  1  0.85034800  0.11195733  0.67309467  1
  O  O453  1  0.85034800  0.44529067  0.00642800  1
  O  O454  1  0.85034800  0.44529067  0.33976133  1
  O  O455  1  0.85034800  0.44529067  0.67309467  1
  O  O456  1  0.85034800  0.77862400  0.00642800  1
  O  O457  1  0.85034800  0.77862400  0.33976133  1
  O  O458  1  0.85034800  0.77862400  0.67309467  1
  O  O459  1  0.03769467  0.18368133  0.00642800  1
  O  O460  1  0.03769467  0.18368133  0.33976133  1
  O  O461  1  0.03769467  0.18368133  0.67309467  1
  O  O462  1  0.03769467  0.51701467  0.00642800  1
  O  O463  1  0.03769467  0.51701467  0.33976133  1
  O  O464  1  0.03769467  0.51701467  0.67309467  1
  O  O465  1  0.03769467  0.85034800  0.00642800  1
  O  O466  1  0.03769467  0.85034800  0.33976133  1
  O  O467  1  0.03769467  0.85034800  0.67309467  1
  O  O468  1  0.37102800  0.18368133  0.00642800  1
  O  O469  1  0.37102800  0.18368133  0.33976133  1
  O  O470  1  0.37102800  0.18368133  0.67309467  1
  O  O471  1  0.37102800  0.51701467  0.00642800  1
  O  O472  1  0.37102800  0.51701467  0.33976133  1
  O  O473  1  0.37102800  0.51701467  0.67309467  1
  O  O474  1  0.37102800  0.85034800  0.00642800  1
  O  O475  1  0.37102800  0.85034800  0.33976133  1
  O  O476  1  0.37102800  0.85034800  0.67309467  1
  O  O477  1  0.70436133  0.18368133  0.00642800  1
  O  O478  1  0.70436133  0.18368133  0.33976133  1
  O  O479  1  0.70436133  0.18368133  0.67309467  1
  O  O480  1  0.70436133  0.51701467  0.00642800  1
  O  O481  1  0.70436133  0.51701467  0.33976133  1
  O  O482  1  0.70436133  0.51701467  0.67309467  1
  O  O483  1  0.70436133  0.85034800  0.00642800  1
  O  O484  1  0.70436133  0.85034800  0.33976133  1
  O  O485  1  0.70436133  0.85034800  0.67309467  1
  O  O486  1  0.22031600  0.00430500  0.17661200  1
  O  O487  1  0.22031600  0.00430500  0.50994533  1
  O  O488  1  0.22031600  0.00430500  0.84327867  1
  O  O489  1  0.22031600  0.33763833  0.17661200  1
  O  O490  1  0.22031600  0.33763833  0.50994533  1
  O  O491  1  0.22031600  0.33763833  0.84327867  1
  O  O492  1  0.22031600  0.67097167  0.17661200  1
  O  O493  1  0.22031600  0.67097167  0.50994533  1
  O  O494  1  0.22031600  0.67097167  0.84327867  1
  O  O495  1  0.55364933  0.00430500  0.17661200  1
  O  O496  1  0.55364933  0.00430500  0.50994533  1
  O  O497  1  0.55364933  0.00430500  0.84327867  1
  O  O498  1  0.55364933  0.33763833  0.17661200  1
  O  O499  1  0.55364933  0.33763833  0.50994533  1
  O  O500  1  0.55364933  0.33763833  0.84327867  1
  O  O501  1  0.55364933  0.67097167  0.17661200  1
  O  O502  1  0.55364933  0.67097167  0.50994533  1
  O  O503  1  0.55364933  0.67097167  0.84327867  1
  O  O504  1  0.88698267  0.00430500  0.17661200  1
  O  O505  1  0.88698267  0.00430500  0.50994533  1
  O  O506  1  0.88698267  0.00430500  0.84327867  1
  O  O507  1  0.88698267  0.33763833  0.17661200  1
  O  O508  1  0.88698267  0.33763833  0.50994533  1
  O  O509  1  0.88698267  0.33763833  0.84327867  1
  O  O510  1  0.88698267  0.67097167  0.17661200  1
  O  O511  1  0.88698267  0.67097167  0.50994533  1
  O  O512  1  0.88698267  0.67097167  0.84327867  1
  O  O513  1  0.10871233  0.22031600  0.17661200  1
  O  O514  1  0.10871233  0.22031600  0.50994533  1
  O  O515  1  0.10871233  0.22031600  0.84327867  1
  O  O516  1  0.10871233  0.55364933  0.17661200  1
  O  O517  1  0.10871233  0.55364933  0.50994533  1
  O  O518  1  0.10871233  0.55364933  0.84327867  1
  O  O519  1  0.10871233  0.88698267  0.17661200  1
  O  O520  1  0.10871233  0.88698267  0.50994533  1
  O  O521  1  0.10871233  0.88698267  0.84327867  1
  O  O522  1  0.44204567  0.22031600  0.17661200  1
  O  O523  1  0.44204567  0.22031600  0.50994533  1
  O  O524  1  0.44204567  0.22031600  0.84327867  1
  O  O525  1  0.44204567  0.55364933  0.17661200  1
  O  O526  1  0.44204567  0.55364933  0.50994533  1
  O  O527  1  0.44204567  0.55364933  0.84327867  1
  O  O528  1  0.44204567  0.88698267  0.17661200  1
  O  O529  1  0.44204567  0.88698267  0.50994533  1
  O  O530  1  0.44204567  0.88698267  0.84327867  1
  O  O531  1  0.77537900  0.22031600  0.17661200  1
  O  O532  1  0.77537900  0.22031600  0.50994533  1
  O  O533  1  0.77537900  0.22031600  0.84327867  1
  O  O534  1  0.77537900  0.55364933  0.17661200  1
  O  O535  1  0.77537900  0.55364933  0.50994533  1
  O  O536  1  0.77537900  0.55364933  0.84327867  1
  O  O537  1  0.77537900  0.88698267  0.17661200  1
  O  O538  1  0.77537900  0.88698267  0.50994533  1
  O  O539  1  0.77537900  0.88698267  0.84327867  1
  O  O540  1  0.00430500  0.10871233  0.17661200  1
  O  O541  1  0.00430500  0.10871233  0.50994533  1
  O  O542  1  0.00430500  0.10871233  0.84327867  1
  O  O543  1  0.00430500  0.44204567  0.17661200  1
  O  O544  1  0.00430500  0.44204567  0.50994533  1
  O  O545  1  0.00430500  0.44204567  0.84327867  1
  O  O546  1  0.00430500  0.77537900  0.17661200  1
  O  O547  1  0.00430500  0.77537900  0.50994533  1
  O  O548  1  0.00430500  0.77537900  0.84327867  1
  O  O549  1  0.33763833  0.10871233  0.17661200  1
  O  O550  1  0.33763833  0.10871233  0.50994533  1
  O  O551  1  0.33763833  0.10871233  0.84327867  1
  O  O552  1  0.33763833  0.44204567  0.17661200  1
  O  O553  1  0.33763833  0.44204567  0.50994533  1
  O  O554  1  0.33763833  0.44204567  0.84327867  1
  O  O555  1  0.33763833  0.77537900  0.17661200  1
  O  O556  1  0.33763833  0.77537900  0.50994533  1
  O  O557  1  0.33763833  0.77537900  0.84327867  1
  O  O558  1  0.67097167  0.10871233  0.17661200  1
  O  O559  1  0.67097167  0.10871233  0.50994533  1
  O  O560  1  0.67097167  0.10871233  0.84327867  1
  O  O561  1  0.67097167  0.44204567  0.17661200  1
  O  O562  1  0.67097167  0.44204567  0.50994533  1
  O  O563  1  0.67097167  0.44204567  0.84327867  1
  O  O564  1  0.67097167  0.77537900  0.17661200  1
  O  O565  1  0.67097167  0.77537900  0.50994533  1
  O  O566  1  0.67097167  0.77537900  0.84327867  1
